Circuit: * C:\Users\Gebruiker\Documents\GitHub\COPD_shirt\LTSpice\Draft1.asc

Direct Newton iteration for .op point succeeded.

Date: Sun May 02 16:08:16 2021
Total elapsed time: 0.034 seconds.

tnom = 27
temp = 27
method = modified trap
totiter = 2091
traniter = 2088
tranpoints = 1045
accept = 1045
rejected = 0
matrix size = 9
fillins = 0
solver = Normal
Matrix Compiler1: 368 bytes object code size  0.1/0.1/[0.1]
Matrix Compiler2: 607 bytes object code size  0.1/0.1/[0.1]

