Circuit: * C:\Users\Gebruiker\Documents\GitHub\COPD_shirt\LTSpice\NE555.asc

Direct Newton iteration for .op point succeeded.

Date: Mon Apr 05 23:04:15 2021
Total elapsed time: 0.172 seconds.

tnom = 27
temp = 27
method = modified trap
totiter = 50196
traniter = 50188
tranpoints = 11007
accept = 8592
rejected = 2415
matrix size = 14
fillins = 0
solver = Normal
Matrix Compiler1: 384 bytes object code size  0.1/0.1/[0.0]
Matrix Compiler2: 776 bytes object code size  0.1/0.1/[0.1]

