Circuit: * C:\Users\Gebruiker\Documents\GitHub\COPD_shirt\LTSpice\NE555.asc

Direct Newton iteration for .op point succeeded.

Date: Mon Apr 05 23:18:54 2021
Total elapsed time: 0.086 seconds.

tnom = 27
temp = 27
method = modified trap
totiter = 29337
traniter = 29329
tranpoints = 6597
accept = 5251
rejected = 1346
matrix size = 14
fillins = 0
solver = Normal
Matrix Compiler1: 384 bytes object code size  0.1/0.1/[0.0]
Matrix Compiler2: 776 bytes object code size  0.1/0.1/[0.0]

