Circuit: * C:\Users\Gebruiker\Documents\GitHub\COPD_shirt\LTSpice\NE555.asc

Direct Newton iteration for .op point succeeded.

Date: Sun Jun 20 23:35:29 2021
Total elapsed time: 2.639 seconds.

tnom = 27
temp = 27
method = modified trap
totiter = 736446
traniter = 736438
tranpoints = 154965
accept = 119032
rejected = 35933
matrix size = 29
fillins = 0
solver = Normal
Matrix Compiler1: 828 bytes object code size  0.2/0.1/[0.1]
Matrix Compiler2: 1.58 KB object code size  0.1/0.2/[0.1]

